
     RDKit          3D

 76 79  0  0  0  0  0  0  0  0999 V2000
   -0.0450    2.6222   -2.2326 C   0  0  0  0  0  0  0  0  0  0  0  0
   -0.2964    1.2179   -2.7880 C   0  0  0  0  0  0  0  0  0  0  0  0
    0.6842    0.8622   -3.8983 C   0  0  0  0  0  0  0  0  0  0  0  0
   -0.4851    0.2015   -1.6621 C   0  0  0  0  0  0  0  0  0  0  0  0
   -1.6819   -0.0031   -0.9559 C   0  0  0  0  0  0  0  0  0  0  0  0
   -2.9506    0.7190   -1.1848 C   0  0  0  0  0  0  0  0  0  0  0  0
   -3.3393    0.9875   -2.3154 O   0  0  0  0  0  0  0  0  0  0  0  0
   -3.5989    1.0546   -0.0112 N   0  0  0  0  0  0  0  0  0  0  0  0
   -4.8257    1.7279    0.1449 C   0  0  0  0  0  0  0  0  0  0  0  0
   -5.2811    1.9214    1.4563 C   0  0  0  0  0  0  0  0  0  0  0  0
   -6.4873    2.5816    1.7041 C   0  0  0  0  0  0  0  0  0  0  0  0
   -7.2517    3.0543    0.6412 C   0  0  0  0  0  0  0  0  0  0  0  0
   -6.8085    2.8654   -0.6658 C   0  0  0  0  0  0  0  0  0  0  0  0
   -5.6003    2.2048   -0.9134 C   0  0  0  0  0  0  0  0  0  0  0  0
   -1.4468   -1.0488   -0.0118 C   0  0  0  0  0  0  0  0  0  0  0  0
   -2.4039   -1.7076    0.8664 C   0  0  0  0  0  0  0  0  0  0  0  0
   -3.4450   -2.4646    0.3178 C   0  0  0  0  0  0  0  0  0  0  0  0
   -4.3860   -3.0701    1.1522 C   0  0  0  0  0  0  0  0  0  0  0  0
   -4.2926   -2.9190    2.5352 C   0  0  0  0  0  0  0  0  0  0  0  0
   -3.2606   -2.1608    3.0872 C   0  0  0  0  0  0  0  0  0  0  0  0
   -2.3192   -1.5525    2.2552 C   0  0  0  0  0  0  0  0  0  0  0  0
   -0.1346   -1.4706   -0.1526 C   0  0  0  0  0  0  0  0  0  0  0  0
    0.5248   -2.6023    0.5084 C   0  0  0  0  0  0  0  0  0  0  0  0
    0.5915   -3.8442   -0.1393 C   0  0  0  0  0  0  0  0  0  0  0  0
    1.2071   -4.9301    0.4851 C   0  0  0  0  0  0  0  0  0  0  0  0
    1.7469   -4.7731    1.7561 C   0  0  0  0  0  0  0  0  0  0  0  0
    2.3385   -5.8148    2.3548 F   0  0  0  0  0  0  0  0  0  0  0  0
    1.6804   -3.5517    2.4170 C   0  0  0  0  0  0  0  0  0  0  0  0
    1.0634   -2.4653    1.7944 C   0  0  0  0  0  0  0  0  0  0  0  0
    0.4656   -0.6605   -1.1165 N   0  0  0  0  0  0  0  0  0  0  0  0
    1.8682   -0.7984   -1.5008 C   0  0  0  0  0  0  0  0  0  0  0  0
    2.7912    0.3416   -1.0605 C   0  0  0  0  0  0  0  0  0  0  0  0
    2.9452    0.4861    0.4554 C   0  0  0  0  0  0  0  0  0  0  0  0
    3.7436   -0.5732    0.9801 O   0  0  0  0  0  0  0  0  0  0  0  0
    3.5623    1.8259    0.8954 C   0  0  0  0  0  0  0  0  0  0  0  0
    4.9223    2.2305    0.3021 C   0  0  0  0  0  0  0  0  0  0  0  0
    4.7496    2.5418   -1.0829 O   0  0  0  0  0  0  0  0  0  0  0  0
    6.0225    1.1847    0.4805 C   0  0  0  0  0  0  0  0  0  0  0  0
    7.3673    1.7931    0.2045 C   0  0  0  0  0  0  0  0  0  0  0  0
    7.5901    2.7819   -0.4764 O   0  0  0  0  0  0  0  0  0  0  0  0
    8.3766    1.1025    0.7673 O   0  0  0  0  0  0  0  0  0  0  0  0
    0.0266    3.3533   -3.0450 H   0  0  0  0  0  0  0  0  0  0  0  0
    0.8750    2.6814   -1.6471 H   0  0  0  0  0  0  0  0  0  0  0  0
   -0.8644    2.9379   -1.5772 H   0  0  0  0  0  0  0  0  0  0  0  0
   -1.2552    1.2721   -3.3169 H   0  0  0  0  0  0  0  0  0  0  0  0
    0.5223    1.5167   -4.7634 H   0  0  0  0  0  0  0  0  0  0  0  0
    0.5425   -0.1675   -4.2423 H   0  0  0  0  0  0  0  0  0  0  0  0
    1.7265    1.0024   -3.6043 H   0  0  0  0  0  0  0  0  0  0  0  0
   -3.1396    0.7720    0.8431 H   0  0  0  0  0  0  0  0  0  0  0  0
   -4.7060    1.5560    2.3031 H   0  0  0  0  0  0  0  0  0  0  0  0
   -6.8294    2.7220    2.7257 H   0  0  0  0  0  0  0  0  0  0  0  0
   -8.1910    3.5669    0.8288 H   0  0  0  0  0  0  0  0  0  0  0  0
   -7.4014    3.2310   -1.5004 H   0  0  0  0  0  0  0  0  0  0  0  0
   -5.2949    2.0796   -1.9472 H   0  0  0  0  0  0  0  0  0  0  0  0
   -3.5297   -2.5868   -0.7600 H   0  0  0  0  0  0  0  0  0  0  0  0
   -5.1925   -3.6584    0.7217 H   0  0  0  0  0  0  0  0  0  0  0  0
   -5.0254   -3.3941    3.1829 H   0  0  0  0  0  0  0  0  0  0  0  0
   -3.1893   -2.0458    4.1655 H   0  0  0  0  0  0  0  0  0  0  0  0
   -1.5232   -0.9592    2.6971 H   0  0  0  0  0  0  0  0  0  0  0  0
    0.1548   -3.9698   -1.1277 H   0  0  0  0  0  0  0  0  0  0  0  0
    1.2615   -5.8955   -0.0076 H   0  0  0  0  0  0  0  0  0  0  0  0
    2.1025   -3.4555    3.4124 H   0  0  0  0  0  0  0  0  0  0  0  0
    1.0038   -1.5146    2.3186 H   0  0  0  0  0  0  0  0  0  0  0  0
    2.2571   -1.7416   -1.1083 H   0  0  0  0  0  0  0  0  0  0  0  0
    1.8963   -0.9332   -2.5837 H   0  0  0  0  0  0  0  0  0  0  0  0
    3.7729    0.1399   -1.5059 H   0  0  0  0  0  0  0  0  0  0  0  0
    2.4345    1.2829   -1.4774 H   0  0  0  0  0  0  0  0  0  0  0  0
    1.9651    0.4221    0.9401 H   0  0  0  0  0  0  0  0  0  0  0  0
    3.2774   -1.4135    0.8296 H   0  0  0  0  0  0  0  0  0  0  0  0
    2.8396    2.6176    0.6580 H   0  0  0  0  0  0  0  0  0  0  0  0
    3.6713    1.8042    1.9876 H   0  0  0  0  0  0  0  0  0  0  0  0
    5.2196    3.1665    0.7928 H   0  0  0  0  0  0  0  0  0  0  0  0
    5.5812    2.9644   -1.3800 H   0  0  0  0  0  0  0  0  0  0  0  0
    5.9007    0.3477   -0.2138 H   0  0  0  0  0  0  0  0  0  0  0  0
    6.0226    0.8206    1.5136 H   0  0  0  0  0  0  0  0  0  0  0  0
    9.1872    1.5804    0.4945 H   0  0  0  0  0  0  0  0  0  0  0  0
  1  2  1  0
  2  3  1  0
  2  4  1  0
  4  5  2  0
  5  6  1  0
  6  7  2  0
  6  8  1  0
  8  9  1  0
  9 10  2  0
 10 11  1  0
 11 12  2  0
 12 13  1  0
 13 14  2  0
  5 15  1  0
 15 16  1  0
 16 17  2  0
 17 18  1  0
 18 19  2  0
 19 20  1  0
 20 21  2  0
 15 22  2  0
 22 23  1  0
 23 24  1  0
 24 25  2  0
 25 26  1  0
 26 27  1  0
 26 28  2  0
 28 29  1  0
 22 30  1  0
 30 31  1  0
 31 32  1  0
 32 33  1  0
 33 34  1  0
 33 35  1  0
 35 36  1  0
 36 37  1  0
 36 38  1  0
 38 39  1  0
 39 40  2  0
 39 41  1  0
 30  4  1  0
 14  9  1  0
 21 16  1  0
 29 23  2  0
  1 42  1  0
  1 43  1  0
  1 44  1  0
  2 45  1  0
  3 46  1  0
  3 47  1  0
  3 48  1  0
  8 49  1  0
 10 50  1  0
 11 51  1  0
 12 52  1  0
 13 53  1  0
 14 54  1  0
 17 55  1  0
 18 56  1  0
 19 57  1  0
 20 58  1  0
 21 59  1  0
 24 60  1  0
 25 61  1  0
 28 62  1  0
 29 63  1  0
 31 64  1  0
 31 65  1  0
 32 66  1  0
 32 67  1  0
 33 68  1  0
 34 69  1  0
 35 70  1  0
 35 71  1  0
 36 72  1  0
 37 73  1  0
 38 74  1  0
 38 75  1  0
 41 76  1  0
M  END
$$$$
