
     RDKit          3D

 24 25  0  0  0  0  0  0  0  0999 V2000
    3.2785    0.5941    0.0738 C   0  0  0  0  0  0  0  0  0  0  0  0
    2.1406   -0.2864   -0.0031 N   0  0  0  0  0  0  0  0  0  0  0  0
    2.1797   -1.6519   -0.1065 C   0  0  0  0  0  0  0  0  0  0  0  0
    0.9687   -2.1705   -0.1565 N   0  0  0  0  0  0  0  0  0  0  0  0
    0.1361   -1.0950   -0.0820 C   0  0  0  0  0  0  0  0  0  0  0  0
    0.8244    0.0762    0.0130 C   0  0  0  0  0  0  0  0  0  0  0  0
    0.1926    1.3459    0.1040 C   0  0  0  0  0  0  0  0  0  0  0  0
    0.8225    2.3959    0.1893 O   0  0  0  0  0  0  0  0  0  0  0  0
   -1.2025    1.2585    0.0851 N   0  0  0  0  0  0  0  0  0  0  0  0
   -1.9510    0.0665   -0.0120 C   0  0  0  0  0  0  0  0  0  0  0  0
   -3.1854    0.0918   -0.0208 O   0  0  0  0  0  0  0  0  0  0  0  0
   -1.2372   -1.1294   -0.0966 N   0  0  0  0  0  0  0  0  0  0  0  0
   -1.9317   -2.3997   -0.1993 C   0  0  0  0  0  0  0  0  0  0  0  0
   -1.9654    2.4883    0.1720 C   0  0  0  0  0  0  0  0  0  0  0  0
    4.1985    0.0050    0.0370 H   0  0  0  0  0  0  0  0  0  0  0  0
    3.2462    1.2798   -0.7766 H   0  0  0  0  0  0  0  0  0  0  0  0
    3.2305    1.1434    1.0173 H   0  0  0  0  0  0  0  0  0  0  0  0
    3.1051   -2.2132   -0.1411 H   0  0  0  0  0  0  0  0  0  0  0  0
   -1.6383   -2.8932   -1.1312 H   0  0  0  0  0  0  0  0  0  0  0  0
   -1.6538   -3.0288    0.6524 H   0  0  0  0  0  0  0  0  0  0  0  0
   -3.0174   -2.2723   -0.1990 H   0  0  0  0  0  0  0  0  0  0  0  0
   -2.6133    2.4434    1.0535 H   0  0  0  0  0  0  0  0  0  0  0  0
   -2.5979    2.5780   -0.7174 H   0  0  0  0  0  0  0  0  0  0  0  0
   -1.3294    3.3738    0.2448 H   0  0  0  0  0  0  0  0  0  0  0  0
  1  2  1  0
  2  3  1  0
  3  4  2  0
  4  5  1  0
  5  6  2  0
  6  7  1  0
  7  8  2  0
  7  9  1  0
  9 10  1  0
 10 11  2  0
 10 12  1  0
 12 13  1  0
  9 14  1  0
  6  2  1  0
 12  5  1  0
  1 15  1  0
  1 16  1  0
  1 17  1  0
  3 18  1  0
 13 19  1  0
 13 20  1  0
 13 21  1  0
 14 22  1  0
 14 23  1  0
 14 24  1  0
M  END
$$$$
