
     RDKit          3D

 52 54  0  0  0  0  0  0  0  0999 V2000
    7.5924    1.7897   -1.8181 O   0  0  0  0  0  0  0  0  0  0  0  0
    6.6626    1.3757   -0.9296 C   0  0  0  0  0  0  0  0  0  0  0  0
    6.0243    2.1928   -0.2867 O   0  0  0  0  0  0  0  0  0  0  0  0
    6.5535   -0.1458   -0.8807 C   0  0  0  0  0  0  0  0  0  0  0  0
    5.6115   -0.6770    0.0420 O   0  0  0  0  0  0  0  0  0  0  0  0
    4.2592   -0.5236   -0.4026 C   0  0  0  0  0  0  0  0  0  0  0  0
    3.3224   -1.1435    0.6456 C   0  0  0  0  0  0  0  0  0  0  0  0
    1.9029   -1.1006    0.2672 N   0  0  0  0  0  0  0  0  0  0  0  0
    1.3836    0.2822    0.1779 C   0  0  0  0  0  0  0  0  0  0  0  0
   -0.1487    0.4311    0.3963 C   0  0  0  0  0  0  0  0  0  0  0  0
   -0.8730   -0.7745   -0.0050 N   0  0  0  0  0  0  0  0  0  0  0  0
   -0.4168   -1.9435    0.7629 C   0  0  0  0  0  0  0  0  0  0  0  0
    1.0762   -1.8910    1.1907 C   0  0  0  0  0  0  0  0  0  0  0  0
   -2.3414   -0.6685   -0.1302 C   0  0  0  0  0  0  0  0  0  0  0  0
   -3.0385   -0.1750    1.1464 C   0  0  0  0  0  0  0  0  0  0  0  0
   -3.1032    1.1897    1.4806 C   0  0  0  0  0  0  0  0  0  0  0  0
   -3.7418    1.6128    2.6482 C   0  0  0  0  0  0  0  0  0  0  0  0
   -4.3277    0.6803    3.5001 C   0  0  0  0  0  0  0  0  0  0  0  0
   -4.2775   -0.6754    3.1857 C   0  0  0  0  0  0  0  0  0  0  0  0
   -3.6392   -1.1002    2.0184 C   0  0  0  0  0  0  0  0  0  0  0  0
   -2.7935    0.0442   -1.4253 C   0  0  0  0  0  0  0  0  0  0  0  0
   -4.1326    0.4498   -1.5950 C   0  0  0  0  0  0  0  0  0  0  0  0
   -4.5622    1.0557   -2.7799 C   0  0  0  0  0  0  0  0  0  0  0  0
   -3.6652    1.2422   -3.8264 C   0  0  0  0  0  0  0  0  0  0  0  0
   -4.1931    1.9862   -5.2851 Cl  0  0  0  0  0  0  0  0  0  0  0  0
   -2.3467    0.8175   -3.7028 C   0  0  0  0  0  0  0  0  0  0  0  0
   -1.9190    0.2132   -2.5163 C   0  0  0  0  0  0  0  0  0  0  0  0
    7.5653    2.7679   -1.7489 H   0  0  0  0  0  0  0  0  0  0  0  0
    7.5345   -0.5232   -0.5741 H   0  0  0  0  0  0  0  0  0  0  0  0
    6.3410   -0.5216   -1.8879 H   0  0  0  0  0  0  0  0  0  0  0  0
    4.1328   -1.0359   -1.3638 H   0  0  0  0  0  0  0  0  0  0  0  0
    4.0354    0.5391   -0.5349 H   0  0  0  0  0  0  0  0  0  0  0  0
    3.4897   -0.6624    1.6186 H   0  0  0  0  0  0  0  0  0  0  0  0
    3.6327   -2.1888    0.7779 H   0  0  0  0  0  0  0  0  0  0  0  0
    1.6239    0.6590   -0.8239 H   0  0  0  0  0  0  0  0  0  0  0  0
    1.8823    0.9392    0.9024 H   0  0  0  0  0  0  0  0  0  0  0  0
   -0.3231    0.6414    1.4593 H   0  0  0  0  0  0  0  0  0  0  0  0
   -0.4814    1.3084   -0.1696 H   0  0  0  0  0  0  0  0  0  0  0  0
   -0.5671   -2.8321    0.1380 H   0  0  0  0  0  0  0  0  0  0  0  0
   -1.0065   -2.0841    1.6750 H   0  0  0  0  0  0  0  0  0  0  0  0
    1.4479   -2.9214    1.2480 H   0  0  0  0  0  0  0  0  0  0  0  0
    1.1423   -1.4665    2.2019 H   0  0  0  0  0  0  0  0  0  0  0  0
   -2.7070   -1.6917   -0.3098 H   0  0  0  0  0  0  0  0  0  0  0  0
   -2.6605    1.9360    0.8245 H   0  0  0  0  0  0  0  0  0  0  0  0
   -3.7836    2.6716    2.8900 H   0  0  0  0  0  0  0  0  0  0  0  0
   -4.8242    1.0106    4.4089 H   0  0  0  0  0  0  0  0  0  0  0  0
   -4.7358   -1.4036    3.8499 H   0  0  0  0  0  0  0  0  0  0  0  0
   -3.6129   -2.1640    1.7921 H   0  0  0  0  0  0  0  0  0  0  0  0
   -4.8619    0.2963   -0.8010 H   0  0  0  0  0  0  0  0  0  0  0  0
   -5.5968    1.3721   -2.8779 H   0  0  0  0  0  0  0  0  0  0  0  0
   -1.6464    0.9435   -4.5237 H   0  0  0  0  0  0  0  0  0  0  0  0
   -0.8890   -0.1343   -2.4541 H   0  0  0  0  0  0  0  0  0  0  0  0
  1  2  1  0
  2  3  2  0
  2  4  1  0
  4  5  1  0
  5  6  1  0
  6  7  1  0
  7  8  1  0
  8  9  1  0
  9 10  1  0
 10 11  1  0
 11 12  1  0
 12 13  1  0
 11 14  1  0
 14 15  1  0
 15 16  2  0
 16 17  1  0
 17 18  2  0
 18 19  1  0
 19 20  2  0
 14 21  1  0
 21 22  1  0
 22 23  2  0
 23 24  1  0
 24 25  1  0
 24 26  2  0
 26 27  1  0
 13  8  1  0
 20 15  1  0
 27 21  2  0
  1 28  1  0
  4 29  1  0
  4 30  1  0
  6 31  1  0
  6 32  1  0
  7 33  1  0
  7 34  1  0
  9 35  1  0
  9 36  1  0
 10 37  1  0
 10 38  1  0
 12 39  1  0
 12 40  1  0
 13 41  1  0
 13 42  1  0
 14 43  1  0
 16 44  1  0
 17 45  1  0
 18 46  1  0
 19 47  1  0
 20 48  1  0
 22 49  1  0
 23 50  1  0
 26 51  1  0
 27 52  1  0
M  END
$$$$
