
     RDKit          3D

 42 45  0  0  0  0  0  0  0  0999 V2000
   -5.2382    3.3050   -0.8415 O   0  0  0  0  0  0  0  0  0  0  0  0
   -5.1766    2.0052   -0.5188 C   0  0  0  0  0  0  0  0  0  0  0  0
   -6.1801    1.3105   -0.5279 O   0  0  0  0  0  0  0  0  0  0  0  0
   -3.8137    1.5345   -0.2481 C   0  0  0  0  0  0  0  0  0  0  0  0
   -3.5426    0.2429   -0.4903 C   0  0  0  0  0  0  0  0  0  0  0  0
   -2.3209   -0.3806   -0.3107 N   0  0  0  0  0  0  0  0  0  0  0  0
   -2.2021   -1.8014   -0.6902 C   0  0  0  0  0  0  0  0  0  0  0  0
   -3.1923   -2.8435   -0.2264 C   0  0  0  0  0  0  0  0  0  0  0  0
   -1.7968   -2.8552    0.3115 C   0  0  0  0  0  0  0  0  0  0  0  0
   -1.1823    0.4095    0.0210 C   0  0  0  0  0  0  0  0  0  0  0  0
    0.1238   -0.1189    0.0608 C   0  0  0  0  0  0  0  0  0  0  0  0
    1.2486    0.6607    0.3951 C   0  0  0  0  0  0  0  0  0  0  0  0
    2.5502    0.1301    0.4501 N   0  0  0  0  0  0  0  0  0  0  0  0
    3.5210    0.8053   -0.4478 C   0  0  0  0  0  0  0  0  0  0  0  0
    4.9674    0.3825   -0.1002 C   0  0  0  0  0  0  0  0  0  0  0  0
    5.1729   -1.0794   -0.1020 N   0  0  0  0  0  0  0  0  0  0  0  0
    4.1921   -1.7003    0.8078 C   0  0  0  0  0  0  0  0  0  0  0  0
    2.7291   -1.3366    0.4657 C   0  0  0  0  0  0  0  0  0  0  0  0
    1.0057    2.0132    0.7130 C   0  0  0  0  0  0  0  0  0  0  0  0
    2.0174    2.8104    1.0939 F   0  0  0  0  0  0  0  0  0  0  0  0
   -0.2676    2.5704    0.6769 C   0  0  0  0  0  0  0  0  0  0  0  0
   -1.3551    1.7717    0.3243 C   0  0  0  0  0  0  0  0  0  0  0  0
   -2.7121    2.3749    0.2763 C   0  0  0  0  0  0  0  0  0  0  0  0
   -2.8840    3.5195    0.6804 O   0  0  0  0  0  0  0  0  0  0  0  0
   -6.1894    3.4896   -0.9768 H   0  0  0  0  0  0  0  0  0  0  0  0
   -4.3191   -0.4190   -0.8692 H   0  0  0  0  0  0  0  0  0  0  0  0
   -1.8280   -1.9157   -1.7058 H   0  0  0  0  0  0  0  0  0  0  0  0
   -3.9842   -2.5530    0.4542 H   0  0  0  0  0  0  0  0  0  0  0  0
   -3.4750   -3.6187   -0.9290 H   0  0  0  0  0  0  0  0  0  0  0  0
   -1.6542   -2.5566    1.3439 H   0  0  0  0  0  0  0  0  0  0  0  0
   -1.1300   -3.6412   -0.0218 H   0  0  0  0  0  0  0  0  0  0  0  0
    0.2657   -1.1618   -0.1973 H   0  0  0  0  0  0  0  0  0  0  0  0
    3.4688    1.8959   -0.3738 H   0  0  0  0  0  0  0  0  0  0  0  0
    3.3001    0.5366   -1.4894 H   0  0  0  0  0  0  0  0  0  0  0  0
    5.6538    0.8313   -0.8264 H   0  0  0  0  0  0  0  0  0  0  0  0
    5.2355    0.7821    0.8862 H   0  0  0  0  0  0  0  0  0  0  0  0
    6.1127   -1.2787    0.2390 H   0  0  0  0  0  0  0  0  0  0  0  0
    4.4132   -1.3981    1.8394 H   0  0  0  0  0  0  0  0  0  0  0  0
    4.3097   -2.7883    0.7585 H   0  0  0  0  0  0  0  0  0  0  0  0
    2.4713   -1.7624   -0.5126 H   0  0  0  0  0  0  0  0  0  0  0  0
    2.0819   -1.7912    1.2256 H   0  0  0  0  0  0  0  0  0  0  0  0
   -0.3968    3.6187    0.9305 H   0  0  0  0  0  0  0  0  0  0  0  0
  1  2  1  0
  2  3  2  0
  2  4  1  0
  4  5  2  0
  5  6  1  0
  6  7  1  0
  7  8  1  0
  8  9  1  0
  6 10  1  0
 10 11  1  0
 11 12  2  0
 12 13  1  0
 13 14  1  0
 14 15  1  0
 15 16  1  0
 16 17  1  0
 17 18  1  0
 12 19  1  0
 19 20  1  0
 19 21  2  0
 21 22  1  0
 22 23  1  0
 23 24  2  0
 23  4  1  0
  9  7  1  0
 22 10  2  0
 18 13  1  0
  1 25  1  0
  5 26  1  0
  7 27  1  0
  8 28  1  0
  8 29  1  0
  9 30  1  0
  9 31  1  0
 11 32  1  0
 14 33  1  0
 14 34  1  0
 15 35  1  0
 15 36  1  0
 16 37  1  0
 17 38  1  0
 17 39  1  0
 18 40  1  0
 18 41  1  0
 21 42  1  0
M  END
$$$$
