
     RDKit          3D

 33 35  0  0  0  0  0  0  0  0999 V2000
   -3.4544   -0.6604   -1.3369 C   0  0  0  0  0  0  0  0  0  0  0  0
   -2.2996   -0.9244   -0.4888 N   0  0  0  0  0  0  0  0  0  0  0  0
   -1.7730    0.1303    0.3215 C   0  0  0  0  0  0  0  0  0  0  0  0
   -2.6337    1.1590    0.7516 C   0  0  0  0  0  0  0  0  0  0  0  0
   -2.1853    2.1845    1.5908 C   0  0  0  0  0  0  0  0  0  0  0  0
   -0.8633    2.2020    2.0138 C   0  0  0  0  0  0  0  0  0  0  0  0
   -0.3138    3.4522    3.0574 Cl  0  0  0  0  0  0  0  0  0  0  0  0
    0.0192    1.2178    1.5856 C   0  0  0  0  0  0  0  0  0  0  0  0
   -0.4226    0.1993    0.7202 C   0  0  0  0  0  0  0  0  0  0  0  0
    0.6112   -0.7459    0.2052 C   0  0  0  0  0  0  0  0  0  0  0  0
    0.4689   -2.0281    0.1815 N   0  0  0  0  0  0  0  0  0  0  0  0
   -0.8048   -2.5830    0.6272 C   0  0  0  0  0  0  0  0  0  0  0  0
   -1.8818   -2.2583   -0.3987 C   0  0  0  0  0  0  0  0  0  0  0  0
   -2.4030   -3.1585   -1.0641 O   0  0  0  0  0  0  0  0  0  0  0  0
    1.9023   -0.1898   -0.3138 C   0  0  0  0  0  0  0  0  0  0  0  0
    3.0835   -0.9140   -0.1125 C   0  0  0  0  0  0  0  0  0  0  0  0
    4.2991   -0.4179   -0.5861 C   0  0  0  0  0  0  0  0  0  0  0  0
    4.3374    0.7963   -1.2708 C   0  0  0  0  0  0  0  0  0  0  0  0
    3.1609    1.5124   -1.4913 C   0  0  0  0  0  0  0  0  0  0  0  0
    1.9422    1.0198   -1.0194 C   0  0  0  0  0  0  0  0  0  0  0  0
   -3.3980    0.3476   -1.7602 H   0  0  0  0  0  0  0  0  0  0  0  0
   -3.4945   -1.3645   -2.1740 H   0  0  0  0  0  0  0  0  0  0  0  0
   -4.3673   -0.7783   -0.7447 H   0  0  0  0  0  0  0  0  0  0  0  0
   -3.6869    1.1623    0.4807 H   0  0  0  0  0  0  0  0  0  0  0  0
   -2.8801    2.9536    1.9202 H   0  0  0  0  0  0  0  0  0  0  0  0
    1.0549    1.2488    1.9178 H   0  0  0  0  0  0  0  0  0  0  0  0
   -1.0962   -2.2492    1.6295 H   0  0  0  0  0  0  0  0  0  0  0  0
   -0.7070   -3.6731    0.6825 H   0  0  0  0  0  0  0  0  0  0  0  0
    3.0594   -1.8668    0.4120 H   0  0  0  0  0  0  0  0  0  0  0  0
    5.2139   -0.9831   -0.4264 H   0  0  0  0  0  0  0  0  0  0  0  0
    5.2846    1.1788   -1.6434 H   0  0  0  0  0  0  0  0  0  0  0  0
    3.1926    2.4504   -2.0401 H   0  0  0  0  0  0  0  0  0  0  0  0
    1.0349    1.5802   -1.2265 H   0  0  0  0  0  0  0  0  0  0  0  0
  1  2  1  0
  2  3  1  0
  3  4  1  0
  4  5  2  0
  5  6  1  0
  6  7  1  0
  6  8  2  0
  8  9  1  0
  9 10  1  0
 10 11  2  0
 11 12  1  0
 12 13  1  0
 13 14  2  0
 10 15  1  0
 15 16  2  0
 16 17  1  0
 17 18  2  0
 18 19  1  0
 19 20  2  0
 13  2  1  0
 20 15  1  0
  9  3  2  0
  1 21  1  0
  1 22  1  0
  1 23  1  0
  4 24  1  0
  5 25  1  0
  8 26  1  0
 12 27  1  0
 12 28  1  0
 16 29  1  0
 17 30  1  0
 18 31  1  0
 19 32  1  0
 20 33  1  0
M  END
$$$$
