
     RDKit          3D

 40 44  0  0  0  0  0  0  0  0999 V2000
    0.9496    3.7211   -0.0418 C   0  0  0  0  0  0  0  0  0  0  0  0
   -0.0314    2.6506   -0.0161 N   0  0  0  0  0  0  0  0  0  0  0  0
   -0.3535    2.1727    1.3233 C   0  0  0  0  0  0  0  0  0  0  0  0
    0.0142    0.7144    1.6016 C   0  0  0  0  0  0  0  0  0  0  0  0
   -0.3841   -0.2594    0.4599 C   0  0  0  0  0  0  0  0  0  0  0  0
    0.8188   -0.9654   -0.0353 C   0  0  0  0  0  0  0  0  0  0  0  0
    1.7897   -0.3822   -0.8344 C   0  0  0  0  0  0  0  0  0  0  0  0
    2.8455   -1.1993   -1.2396 C   0  0  0  0  0  0  0  0  0  0  0  0
    2.8518   -2.5685   -0.8933 C   0  0  0  0  0  0  0  0  0  0  0  0
    1.7901   -3.1251   -0.1746 C   0  0  0  0  0  0  0  0  0  0  0  0
    1.7743   -4.4615    0.0790 O   0  0  0  0  0  0  0  0  0  0  0  0
    0.7632   -2.3072    0.2362 C   0  0  0  0  0  0  0  0  0  0  0  0
   -0.4042   -2.6977    0.8331 O   0  0  0  0  0  0  0  0  0  0  0  0
   -1.2069   -1.4683    0.9638 C   0  0  0  0  0  0  0  0  0  0  0  0
   -2.5755   -1.6093    0.2435 C   0  0  0  0  0  0  0  0  0  0  0  0
   -3.5244   -2.2251    1.1186 O   0  0  0  0  0  0  0  0  0  0  0  0
   -3.1566   -0.2866   -0.2022 C   0  0  0  0  0  0  0  0  0  0  0  0
   -2.3757    0.7033   -0.6712 C   0  0  0  0  0  0  0  0  0  0  0  0
   -0.8984    0.4486   -0.8025 C   0  0  0  0  0  0  0  0  0  0  0  0
    0.1002    1.6210   -1.0612 C   0  0  0  0  0  0  0  0  0  0  0  0
    1.5721    1.0454   -1.2918 C   0  0  0  0  0  0  0  0  0  0  0  0
    1.1257    4.0712   -1.0647 H   0  0  0  0  0  0  0  0  0  0  0  0
    0.5812    4.5852    0.5227 H   0  0  0  0  0  0  0  0  0  0  0  0
    1.9069    3.4212    0.3967 H   0  0  0  0  0  0  0  0  0  0  0  0
    0.1013    2.8042    2.0977 H   0  0  0  0  0  0  0  0  0  0  0  0
   -1.4348    2.2908    1.4673 H   0  0  0  0  0  0  0  0  0  0  0  0
   -0.4670    0.4312    2.5456 H   0  0  0  0  0  0  0  0  0  0  0  0
    1.0934    0.6674    1.8028 H   0  0  0  0  0  0  0  0  0  0  0  0
    3.6484   -0.8020   -1.8557 H   0  0  0  0  0  0  0  0  0  0  0  0
    3.6664   -3.2069   -1.2255 H   0  0  0  0  0  0  0  0  0  0  0  0
    0.9380   -4.6315    0.5534 H   0  0  0  0  0  0  0  0  0  0  0  0
   -1.3982   -1.3888    2.0416 H   0  0  0  0  0  0  0  0  0  0  0  0
   -2.4853   -2.2747   -0.6225 H   0  0  0  0  0  0  0  0  0  0  0  0
   -3.6782   -1.6186    1.8622 H   0  0  0  0  0  0  0  0  0  0  0  0
   -4.2364   -0.1654   -0.1865 H   0  0  0  0  0  0  0  0  0  0  0  0
   -2.7945    1.6376   -1.0333 H   0  0  0  0  0  0  0  0  0  0  0  0
   -0.8259   -0.2030   -1.6910 H   0  0  0  0  0  0  0  0  0  0  0  0
   -0.1934    2.1099   -2.0004 H   0  0  0  0  0  0  0  0  0  0  0  0
    1.7560    1.0750   -2.3742 H   0  0  0  0  0  0  0  0  0  0  0  0
    2.3378    1.6756   -0.8315 H   0  0  0  0  0  0  0  0  0  0  0  0
  1  2  1  0
  2  3  1  0
  3  4  1  0
  4  5  1  0
  5  6  1  0
  6  7  2  0
  7  8  1  0
  8  9  2  0
  9 10  1  0
 10 11  1  0
 10 12  2  0
 12 13  1  0
 13 14  1  0
 14 15  1  0
 15 16  1  0
 15 17  1  0
 17 18  2  0
 18 19  1  0
 19 20  1  0
 20 21  1  0
 20  2  1  0
 14  5  1  0
 19  5  1  0
 12  6  1  0
 21  7  1  0
  1 22  1  0
  1 23  1  0
  1 24  1  0
  3 25  1  0
  3 26  1  0
  4 27  1  0
  4 28  1  0
  8 29  1  0
  9 30  1  0
 11 31  1  0
 14 32  1  0
 15 33  1  0
 16 34  1  0
 17 35  1  0
 18 36  1  0
 19 37  1  0
 20 38  1  0
 21 39  1  0
 21 40  1  0
M  END
$$$$
