
     RDKit          3D

 31 32  0  0  0  0  0  0  0  0999 V2000
   -5.6638    0.3076   -0.4641 C   0  0  0  0  0  0  0  0  0  0  0  0
   -4.6196    0.1754    0.4918 O   0  0  0  0  0  0  0  0  0  0  0  0
   -3.3399    0.1399    0.0095 C   0  0  0  0  0  0  0  0  0  0  0  0
   -2.9668    0.2131   -1.3304 C   0  0  0  0  0  0  0  0  0  0  0  0
   -1.6142    0.1647   -1.6862 C   0  0  0  0  0  0  0  0  0  0  0  0
   -0.6137    0.0420   -0.7095 C   0  0  0  0  0  0  0  0  0  0  0  0
    0.7494   -0.0078   -1.0530 C   0  0  0  0  0  0  0  0  0  0  0  0
    1.7491   -0.1321   -0.0728 C   0  0  0  0  0  0  0  0  0  0  0  0
    1.3594   -0.2048    1.2705 C   0  0  0  0  0  0  0  0  0  0  0  0
    0.0090   -0.1548    1.6262 C   0  0  0  0  0  0  0  0  0  0  0  0
   -0.9880   -0.0330    0.6478 C   0  0  0  0  0  0  0  0  0  0  0  0
   -2.3499    0.0175    0.9889 C   0  0  0  0  0  0  0  0  0  0  0  0
    3.2116   -0.1963   -0.4877 C   0  0  0  0  0  0  0  0  0  0  0  0
    3.8637   -1.5136   -0.0667 C   0  0  0  0  0  0  0  0  0  0  0  0
    4.0404    0.9650    0.0352 C   0  0  0  0  0  0  0  0  0  0  0  0
    3.8842    1.6019    1.0636 O   0  0  0  0  0  0  0  0  0  0  0  0
    5.0899    1.2458   -0.7697 O   0  0  0  0  0  0  0  0  0  0  0  0
   -5.6850   -0.5486   -1.1465 H   0  0  0  0  0  0  0  0  0  0  0  0
   -5.5787    1.2506   -1.0142 H   0  0  0  0  0  0  0  0  0  0  0  0
   -6.6138    0.3237    0.0787 H   0  0  0  0  0  0  0  0  0  0  0  0
   -3.6990    0.3085   -2.1248 H   0  0  0  0  0  0  0  0  0  0  0  0
   -1.3477    0.2244   -2.7392 H   0  0  0  0  0  0  0  0  0  0  0  0
    1.0322    0.0490   -2.1028 H   0  0  0  0  0  0  0  0  0  0  0  0
    2.1042   -0.2870    2.0600 H   0  0  0  0  0  0  0  0  0  0  0  0
   -0.2582   -0.2075    2.6794 H   0  0  0  0  0  0  0  0  0  0  0  0
   -2.6524   -0.0382    2.0325 H   0  0  0  0  0  0  0  0  0  0  0  0
    3.2498   -0.1365   -1.5841 H   0  0  0  0  0  0  0  0  0  0  0  0
    4.8853   -1.5829   -0.4567 H   0  0  0  0  0  0  0  0  0  0  0  0
    3.9288   -1.6064    1.0233 H   0  0  0  0  0  0  0  0  0  0  0  0
    3.2988   -2.3723   -0.4457 H   0  0  0  0  0  0  0  0  0  0  0  0
    5.5349    1.9926   -0.3157 H   0  0  0  0  0  0  0  0  0  0  0  0
  1  2  1  0
  2  3  1  0
  3  4  1  0
  4  5  2  0
  5  6  1  0
  6  7  2  0
  7  8  1  0
  8  9  2  0
  9 10  1  0
 10 11  2  0
 11 12  1  0
  8 13  1  0
 13 14  1  0
 13 15  1  0
 15 16  2  0
 15 17  1  0
 12  3  2  0
 11  6  1  0
  1 18  1  0
  1 19  1  0
  1 20  1  0
  4 21  1  0
  5 22  1  0
  7 23  1  0
  9 24  1  0
 10 25  1  0
 12 26  1  0
 13 27  1  0
 14 28  1  0
 14 29  1  0
 14 30  1  0
 17 31  1  0
M  END
$$$$
