
     RDKit          3D

 43 45  0  0  0  0  0  0  0  0999 V2000
   -6.4261   -0.7476   -1.1388 C   0  0  0  0  0  0  0  0  0  0  0  0
   -4.9734   -0.7003   -0.7870 C   0  0  0  0  0  0  0  0  0  0  0  0
   -4.0122   -1.0517   -1.7179 C   0  0  0  0  0  0  0  0  0  0  0  0
   -2.6835   -1.0283   -1.4821 N   0  0  0  0  0  0  0  0  0  0  0  0
   -2.2513   -0.6462   -0.2511 C   0  0  0  0  0  0  0  0  0  0  0  0
   -0.7528   -0.6460   -0.0776 C   0  0  0  0  0  0  0  0  0  0  0  0
   -0.0691    1.0364    0.0199 S   0  0  0  0  0  0  0  0  0  0  0  0
   -0.0558    1.6613   -1.3471 O   0  0  0  0  0  0  0  0  0  0  0  0
    1.6350    0.5385    0.3151 C   0  0  0  0  0  0  0  0  0  0  0  0
    2.0390   -0.2358    1.2972 N   0  0  0  0  0  0  0  0  0  0  0  0
    3.3987   -0.3435    1.1242 C   0  0  0  0  0  0  0  0  0  0  0  0
    4.3434   -1.0523    1.8765 C   0  0  0  0  0  0  0  0  0  0  0  0
    5.6872   -1.0020    1.4792 C   0  0  0  0  0  0  0  0  0  0  0  0
    6.0935   -0.2659    0.3596 C   0  0  0  0  0  0  0  0  0  0  0  0
    7.4399   -0.3236    0.1098 O   0  0  0  0  0  0  0  0  0  0  0  0
    7.9238    0.4303   -0.9944 C   0  0  0  0  0  0  0  0  0  0  0  0
    5.1582    0.4480   -0.4015 C   0  0  0  0  0  0  0  0  0  0  0  0
    3.8232    0.3815    0.0150 C   0  0  0  0  0  0  0  0  0  0  0  0
    2.6736    0.9391   -0.4794 N   0  0  0  0  0  0  0  0  0  0  0  0
   -3.1390   -0.2921    0.7757 C   0  0  0  0  0  0  0  0  0  0  0  0
   -2.6700    0.0923    2.1503 C   0  0  0  0  0  0  0  0  0  0  0  0
   -4.5082   -0.2714    0.4576 C   0  0  0  0  0  0  0  0  0  0  0  0
   -5.4208    0.1122    1.4122 O   0  0  0  0  0  0  0  0  0  0  0  0
   -5.6547    1.5204    1.3316 C   0  0  0  0  0  0  0  0  0  0  0  0
   -6.7795    0.2470   -1.4277 H   0  0  0  0  0  0  0  0  0  0  0  0
   -7.0230   -1.1128   -0.2972 H   0  0  0  0  0  0  0  0  0  0  0  0
   -6.6056   -1.4322   -1.9747 H   0  0  0  0  0  0  0  0  0  0  0  0
   -4.2853   -1.3726   -2.7198 H   0  0  0  0  0  0  0  0  0  0  0  0
   -0.4832   -1.2112    0.8196 H   0  0  0  0  0  0  0  0  0  0  0  0
   -0.2788   -1.1481   -0.9293 H   0  0  0  0  0  0  0  0  0  0  0  0
    4.0377   -1.6244    2.7450 H   0  0  0  0  0  0  0  0  0  0  0  0
    6.4300   -1.5499    2.0559 H   0  0  0  0  0  0  0  0  0  0  0  0
    7.4982    0.0670   -1.9352 H   0  0  0  0  0  0  0  0  0  0  0  0
    7.7292    1.4992   -0.8577 H   0  0  0  0  0  0  0  0  0  0  0  0
    9.0081    0.2923   -1.0447 H   0  0  0  0  0  0  0  0  0  0  0  0
    5.4294    1.0295   -1.2731 H   0  0  0  0  0  0  0  0  0  0  0  0
    2.5745    1.5252   -1.2973 H   0  0  0  0  0  0  0  0  0  0  0  0
   -2.4104    1.1543    2.1765 H   0  0  0  0  0  0  0  0  0  0  0  0
   -3.4403   -0.0946    2.9057 H   0  0  0  0  0  0  0  0  0  0  0  0
   -1.8026   -0.4971    2.4598 H   0  0  0  0  0  0  0  0  0  0  0  0
   -6.3439    1.7927    2.1365 H   0  0  0  0  0  0  0  0  0  0  0  0
   -6.1226    1.7918    0.3798 H   0  0  0  0  0  0  0  0  0  0  0  0
   -4.7306    2.0909    1.4726 H   0  0  0  0  0  0  0  0  0  0  0  0
  1  2  1  0
  2  3  1  0
  3  4  2  0
  4  5  1  0
  5  6  1  0
  6  7  1  0
  7  8  2  0
  7  9  1  0
  9 10  2  0
 10 11  1  0
 11 12  2  0
 12 13  1  0
 13 14  2  0
 14 15  1  0
 15 16  1  0
 14 17  1  0
 17 18  2  0
 18 19  1  0
  5 20  2  0
 20 21  1  0
 20 22  1  0
 22 23  1  0
 23 24  1  0
 22  2  2  0
 19  9  1  0
 18 11  1  0
  1 25  1  0
  1 26  1  0
  1 27  1  0
  3 28  1  0
  6 29  1  0
  6 30  1  0
 12 31  1  0
 13 32  1  0
 16 33  1  0
 16 34  1  0
 16 35  1  0
 17 36  1  0
 19 37  1  0
 21 38  1  0
 21 39  1  0
 21 40  1  0
 24 41  1  0
 24 42  1  0
 24 43  1  0
M  END
$$$$
