
     RDKit          3D

 41 43  0  0  0  0  0  0  0  0999 V2000
   -3.5651    0.3476   -2.2629 C   0  0  0  0  0  0  0  0  0  0  0  0
   -3.7377    0.4057   -0.7339 C   0  0  0  0  0  0  0  0  0  0  0  0
   -5.1826    0.8191   -0.4280 C   0  0  0  0  0  0  0  0  0  0  0  0
   -2.6219    1.7463   -0.0975 S   0  0  0  0  0  0  0  0  0  0  0  0
   -1.3926    0.5892    0.6237 C   0  0  0  0  0  0  0  0  0  0  0  0
   -0.1302    0.3463   -0.2498 C   0  0  0  0  0  0  0  0  0  0  0  0
    1.1551    0.1025    0.4642 N   0  0  0  0  0  0  0  0  0  0  0  0
    1.6849    1.0271    1.3363 C   0  0  0  0  0  0  0  0  0  0  0  0
    1.0825    2.0507    1.6509 O   0  0  0  0  0  0  0  0  0  0  0  0
    3.0276    0.6568    1.9422 C   0  0  0  0  0  0  0  0  0  0  0  0
    4.0631    0.2316    0.9286 C   0  0  0  0  0  0  0  0  0  0  0  0
    4.5012    1.1297   -0.0558 C   0  0  0  0  0  0  0  0  0  0  0  0
    5.4537    0.7371   -0.9973 C   0  0  0  0  0  0  0  0  0  0  0  0
    5.9778   -0.5537   -0.9635 C   0  0  0  0  0  0  0  0  0  0  0  0
    5.5553   -1.4507    0.0158 C   0  0  0  0  0  0  0  0  0  0  0  0
    4.6027   -1.0608    0.9587 C   0  0  0  0  0  0  0  0  0  0  0  0
   -0.8755   -0.9452   -0.6813 C   0  0  0  0  0  0  0  0  0  0  0  0
   -0.7517   -1.7909   -1.5367 O   0  0  0  0  0  0  0  0  0  0  0  0
   -1.8539   -0.7555    0.2500 N   0  0  0  0  0  0  0  0  0  0  0  0
   -3.2673   -0.9167   -0.0748 C   0  0  0  0  0  0  0  0  0  0  0  0
   -4.0669   -1.3146    1.1703 C   0  0  0  0  0  0  0  0  0  0  0  0
   -5.2311   -1.6885    1.1740 O   0  0  0  0  0  0  0  0  0  0  0  0
   -3.4065   -1.2007    2.3413 O   0  0  0  0  0  0  0  0  0  0  0  0
   -2.5336    0.1403   -2.5667 H   0  0  0  0  0  0  0  0  0  0  0  0
   -3.8642    1.2885   -2.7408 H   0  0  0  0  0  0  0  0  0  0  0  0
   -4.1943   -0.4444   -2.6878 H   0  0  0  0  0  0  0  0  0  0  0  0
   -5.3523    0.9854    0.6421 H   0  0  0  0  0  0  0  0  0  0  0  0
   -5.8870    0.0506   -0.7669 H   0  0  0  0  0  0  0  0  0  0  0  0
   -5.4536    1.7481   -0.9452 H   0  0  0  0  0  0  0  0  0  0  0  0
   -1.2395    0.6910    1.7017 H   0  0  0  0  0  0  0  0  0  0  0  0
    0.0190    1.0467   -1.0797 H   0  0  0  0  0  0  0  0  0  0  0  0
    1.7523   -0.6602    0.1569 H   0  0  0  0  0  0  0  0  0  0  0  0
    3.4139    1.5220    2.4961 H   0  0  0  0  0  0  0  0  0  0  0  0
    2.8496   -0.1372    2.6776 H   0  0  0  0  0  0  0  0  0  0  0  0
    4.1062    2.1434   -0.0942 H   0  0  0  0  0  0  0  0  0  0  0  0
    5.7891    1.4409   -1.7558 H   0  0  0  0  0  0  0  0  0  0  0  0
    6.7218   -0.8581   -1.6963 H   0  0  0  0  0  0  0  0  0  0  0  0
    5.9723   -2.4542    0.0471 H   0  0  0  0  0  0  0  0  0  0  0  0
    4.2936   -1.7738    1.7206 H   0  0  0  0  0  0  0  0  0  0  0  0
   -3.3568   -1.7602   -0.7713 H   0  0  0  0  0  0  0  0  0  0  0  0
   -4.0572   -1.4809    3.0187 H   0  0  0  0  0  0  0  0  0  0  0  0
  1  2  1  0
  2  3  1  0
  2  4  1  0
  4  5  1  0
  5  6  1  0
  6  7  1  0
  7  8  1  0
  8  9  2  0
  8 10  1  0
 10 11  1  0
 11 12  2  0
 12 13  1  0
 13 14  2  0
 14 15  1  0
 15 16  2  0
  6 17  1  0
 17 18  2  0
 17 19  1  0
 19 20  1  0
 20 21  1  0
 21 22  2  0
 21 23  1  0
 20  2  1  0
 19  5  1  0
 16 11  1  0
  1 24  1  0
  1 25  1  0
  1 26  1  0
  3 27  1  0
  3 28  1  0
  3 29  1  0
  5 30  1  0
  6 31  1  0
  7 32  1  0
 10 33  1  0
 10 34  1  0
 12 35  1  0
 13 36  1  0
 14 37  1  0
 15 38  1  0
 16 39  1  0
 20 40  1  0
 23 41  1  0
M  END
$$$$
