
     RDKit          3D

 39 41  0  0  0  0  0  0  0  0999 V2000
   -1.4338    3.3155    2.3159 C   0  0  0  0  0  0  0  0  0  0  0  0
   -1.0393    2.9139    0.9183 C   0  0  0  0  0  0  0  0  0  0  0  0
   -0.1742    3.5327    0.2979 O   0  0  0  0  0  0  0  0  0  0  0  0
   -1.7177    1.6967    0.3222 C   0  0  0  0  0  0  0  0  0  0  0  0
   -1.0827    0.3924    0.8406 C   0  0  0  0  0  0  0  0  0  0  0  0
   -1.9041   -0.8675    0.5560 C   0  0  0  0  0  0  0  0  0  0  0  0
   -1.8208   -1.9490    1.4519 C   0  0  0  0  0  0  0  0  0  0  0  0
   -2.5444   -3.1218    1.2293 C   0  0  0  0  0  0  0  0  0  0  0  0
   -3.3588   -3.2350    0.1060 C   0  0  0  0  0  0  0  0  0  0  0  0
   -3.4468   -2.1776   -0.7959 C   0  0  0  0  0  0  0  0  0  0  0  0
   -2.7234   -1.0030   -0.5747 C   0  0  0  0  0  0  0  0  0  0  0  0
    0.3747    0.2245    0.4169 C   0  0  0  0  0  0  0  0  0  0  0  0
    0.8007    0.1374   -0.8553 C   0  0  0  0  0  0  0  0  0  0  0  0
   -0.0925    0.1498   -1.9080 O   0  0  0  0  0  0  0  0  0  0  0  0
    2.2229   -0.0051   -1.1771 C   0  0  0  0  0  0  0  0  0  0  0  0
    2.7459    0.0240   -2.4772 C   0  0  0  0  0  0  0  0  0  0  0  0
    4.1193   -0.1377   -2.6982 C   0  0  0  0  0  0  0  0  0  0  0  0
    4.9884   -0.3189   -1.6233 C   0  0  0  0  0  0  0  0  0  0  0  0
    4.4877   -0.3230   -0.3252 C   0  0  0  0  0  0  0  0  0  0  0  0
    3.1173   -0.1575   -0.1225 C   0  0  0  0  0  0  0  0  0  0  0  0
    2.6774   -0.1195    1.2097 O   0  0  0  0  0  0  0  0  0  0  0  0
    1.3558    0.1494    1.5311 C   0  0  0  0  0  0  0  0  0  0  0  0
    1.0150    0.2854    2.7027 O   0  0  0  0  0  0  0  0  0  0  0  0
   -1.0664    2.5796    3.0341 H   0  0  0  0  0  0  0  0  0  0  0  0
   -0.9985    4.2906    2.5522 H   0  0  0  0  0  0  0  0  0  0  0  0
   -2.5214    3.3985    2.3830 H   0  0  0  0  0  0  0  0  0  0  0  0
   -2.7814    1.7461    0.5876 H   0  0  0  0  0  0  0  0  0  0  0  0
   -1.6753    1.7877   -0.7685 H   0  0  0  0  0  0  0  0  0  0  0  0
   -1.1300    0.4913    1.9330 H   0  0  0  0  0  0  0  0  0  0  0  0
   -1.1889   -1.8821    2.3367 H   0  0  0  0  0  0  0  0  0  0  0  0
   -2.4709   -3.9462    1.9338 H   0  0  0  0  0  0  0  0  0  0  0  0
   -3.9224   -4.1478   -0.0679 H   0  0  0  0  0  0  0  0  0  0  0  0
   -4.0776   -2.2671   -1.6767 H   0  0  0  0  0  0  0  0  0  0  0  0
   -2.8011   -0.2030   -1.3069 H   0  0  0  0  0  0  0  0  0  0  0  0
    0.2354   -0.4604   -2.5904 H   0  0  0  0  0  0  0  0  0  0  0  0
    2.1081    0.1968   -3.3397 H   0  0  0  0  0  0  0  0  0  0  0  0
    4.5118   -0.1107   -3.7124 H   0  0  0  0  0  0  0  0  0  0  0  0
    6.0547   -0.4393   -1.7969 H   0  0  0  0  0  0  0  0  0  0  0  0
    5.1571   -0.4403    0.5222 H   0  0  0  0  0  0  0  0  0  0  0  0
  1  2  1  0
  2  3  2  0
  2  4  1  0
  4  5  1  0
  5  6  1  0
  6  7  2  0
  7  8  1  0
  8  9  2  0
  9 10  1  0
 10 11  2  0
  5 12  1  0
 12 13  2  0
 13 14  1  0
 13 15  1  0
 15 16  2  0
 16 17  1  0
 17 18  2  0
 18 19  1  0
 19 20  2  0
 20 21  1  0
 21 22  1  0
 22 23  2  0
 11  6  1  0
 22 12  1  0
 20 15  1  0
  1 24  1  0
  1 25  1  0
  1 26  1  0
  4 27  1  0
  4 28  1  0
  5 29  1  0
  7 30  1  0
  8 31  1  0
  9 32  1  0
 10 33  1  0
 11 34  1  0
 14 35  1  0
 16 36  1  0
 17 37  1  0
 18 38  1  0
 19 39  1  0
M  END
$$$$
